/*--------------------------------*- C++ -*----------------------------------*\
| =========                 |                                                 |
| \\      /  F ield         | OpenFOAM: The Open Source CFD Toolbox           |
|  \\    /   O peration     | Version:  2412                                  |
|   \\  /    A nd           | Website:  www.openfoam.com                      |
|    \\/     M anipulation  |                                                 |
\*---------------------------------------------------------------------------*/
FoamFile
{
    version     2.0;
    format      ascii;
    arch        "LSB;label=32;scalar=64";
    class       featureEdgeMesh;
    location    "constant/triSurface";
    object      Carena.eMesh;
}
// * * * * * * * * * * * * * * * * * * * * * * * * * * * * * * * * * * * * * //


// points:

112
(
(-1.60114 -1.8 1.4417)
(15.4286 3.70074e-17 1.9568)
(-1.60114 1.8 1.4417)
(-1.80234 -1.10291e-24 0.1006)
(-1.79764 -0.549899 0.117638)
(-1.78113 -0.948816 0.17752)
(-1.76604 -1.13178 0.241752)
(-1.74653 -1.32082 0.341902)
(-1.72497 -1.49033 0.466667)
(-1.70428 -1.61978 0.598408)
(-1.66032 -1.76008 0.931783)
(-1.68371 -1.7057 0.746035)
(-1.63319 -1.7903 1.16067)
(-1.0996 -1.88182 1.51789)
(-0.623312 -1.95625 1.58446)
(0.253472 -2.08289 1.68874)
(-0.172289 -2.02327 1.64141)
(1.02921 -2.17992 1.75454)
(0.653973 -2.13511 1.72645)
(1.70391 -2.24735 1.78185)
(2.35786 -2.2955 1.79029)
(3.07135 -2.33471 1.79946)
(4.25323 -2.37676 1.81459)
(3.84438 -2.36498 1.80937)
(5.11103 -2.38985 1.82554)
(4.67696 -2.3863 1.82)
(3.45042 -2.35096 1.80432)
(5.55088 -2.38365 1.83116)
(5.99653 -2.36771 1.83685)
(6.44796 -2.34201 1.84263)
(7.62531 2.48104e-17 -0.991034)
(8.02831 2.58637e-17 -0.97605)
(10.0958 3.12605e-17 -0.839709)
(10.6362 3.26682e-17 -0.7791)
(8.79184 2.78583e-17 -0.938184)
(13.1334 3.70074e-17 -0.381614)
(13.7581 3.70074e-17 -0.241526)
(12.7465 3.70074e-17 -0.454859)
(14.4507 3.70074e-17 0.0402609)
(14.6161 3.70074e-17 0.220988)
(14.3485 3.70074e-17 -0.0331342)
(14.7924 3.70074e-17 0.450703)
(14.1977 3.70074e-17 -0.103734)
(6.90518 -2.30657 1.84848)
(7.83698 -2.20644 1.86041)
(7.36819 -2.26138 1.85441)
(8.31156 -2.14175 1.8665)
(9.64257 -1.91972 1.88354)
(9.22143 -1.9967 1.87816)
(10.7707 -1.67102 1.89791)
(10.0412 -1.83979 1.88863)
(8.77777 -2.07071 1.87248)
(11.4102 -1.4904 1.906)
(12.1071 -1.25734 1.9148)
(13.0091 -0.93125 1.9262)
(12.5325 -1.10592 1.92018)
(13.5371 -0.733322 1.93288)
(15.0874 3.70074e-17 0.938857)
(15.2739 3.70074e-17 1.39937)
(14.1163 -0.512138 1.9402)
(14.7468 -0.267697 1.94818)
(-1.79764 0.549899 0.117638)
(-1.78113 0.948816 0.17752)
(-1.76604 1.13178 0.241752)
(-1.74653 1.32082 0.341902)
(-1.72497 1.49033 0.466667)
(-1.70428 1.61978 0.598408)
(-1.68371 1.7057 0.746035)
(-1.66032 1.76008 0.931783)
(-1.63319 1.7903 1.16067)
(-1.0996 1.88182 1.51789)
(-0.623312 1.95625 1.58446)
(-0.172289 2.02327 1.64141)
(0.253472 2.08289 1.68874)
(0.653973 2.13511 1.72645)
(1.02921 2.17992 1.75454)
(1.70391 2.24735 1.78185)
(2.35786 2.2955 1.79029)
(3.07135 2.33471 1.79946)
(3.84438 2.36498 1.80937)
(4.25323 2.37676 1.81459)
(4.67696 2.3863 1.82)
(5.11103 2.38985 1.82554)
(3.45042 2.35096 1.80432)
(5.55088 2.38365 1.83116)
(5.99653 2.36771 1.83685)
(6.44796 2.34201 1.84263)
(6.90518 2.30657 1.84848)
(7.36819 2.26138 1.85441)
(7.83698 2.20644 1.86041)
(8.31156 2.14175 1.8665)
(9.22143 1.9967 1.87816)
(9.64257 1.91972 1.88354)
(10.0412 1.83979 1.88863)
(10.7707 1.67102 1.89791)
(8.77777 2.07071 1.87248)
(11.4102 1.4904 1.906)
(12.1071 1.25734 1.9148)
(12.5325 1.10592 1.92018)
(13.0091 0.93125 1.9262)
(13.5371 0.733322 1.93288)
(14.1163 0.512138 1.9402)
(14.7468 0.267697 1.94818)
(-1.60114 -1.35 1.4417)
(-1.60114 -0.9 1.4417)
(-1.60114 -0.45 1.4417)
(-1.79798 -0.17778 0.116403)
(-1.60114 -4.62593e-16 1.4417)
(-1.60114 0.45 1.4417)
(-1.60114 0.9 1.4417)
(-1.60114 1.35 1.4417)
(-1.80142 -0.0901258 0.103924)
)


// edges:

112
(
(4 3)
(5 4)
(6 5)
(7 6)
(8 7)
(9 8)
(10 11)
(11 9)
(12 10)
(0 12)
(13 0)
(14 13)
(15 16)
(16 14)
(17 18)
(19 17)
(20 19)
(18 15)
(21 20)
(22 23)
(24 25)
(23 26)
(27 24)
(26 21)
(25 22)
(28 27)
(29 28)
(30 31)
(32 33)
(31 34)
(35 36)
(37 35)
(38 39)
(40 38)
(39 41)
(42 40)
(36 42)
(43 29)
(44 45)
(45 43)
(46 44)
(47 48)
(49 50)
(48 51)
(52 49)
(51 46)
(50 47)
(53 52)
(54 55)
(56 54)
(57 58)
(41 57)
(55 53)
(59 56)
(60 59)
(1 60)
(58 1)
(3 61)
(61 62)
(62 63)
(63 64)
(64 65)
(65 66)
(67 68)
(66 67)
(68 69)
(69 2)
(2 70)
(70 71)
(72 73)
(71 72)
(74 75)
(75 76)
(76 77)
(73 74)
(77 78)
(79 80)
(81 82)
(83 79)
(82 84)
(78 83)
(80 81)
(84 85)
(85 86)
(86 87)
(88 89)
(87 88)
(89 90)
(91 92)
(93 94)
(95 91)
(94 96)
(90 95)
(92 93)
(96 97)
(98 99)
(99 100)
(97 98)
(100 101)
(101 102)
(102 1)
(0 103)
(103 104)
(104 105)
(106 3)
(105 107)
(107 108)
(109 110)
(108 109)
(110 2)
(111 106)
(3 111)
)

// * * * * * * * * * * * * * * * * * * * * * * * * * * * * * * * * * * * * * //


// ************************************************************************* //
