/*--------------------------------*- C++ -*----------------------------------*\
| =========                 |                                                 |
| \\      /  F ield         | OpenFOAM: The Open Source CFD Toolbox           |
|  \\    /   O peration     | Version:  2412                                  |
|   \\  /    A nd           | Website:  www.openfoam.com                      |
|    \\/     M anipulation  |                                                 |
\*---------------------------------------------------------------------------*/
FoamFile
{
    version     2.0;
    format      ascii;
    arch        "LSB;label=32;scalar=64";
    class       extendedFeatureEdgeMesh;
    location    "constant/extendedFeatureEdgeMesh";
    object      Carena.extendedFeatureEdgeMesh;
}
// * * * * * * * * * * * * * * * * * * * * * * * * * * * * * * * * * * * * * //

// points

112
(
(-1.60114 -1.8 1.4417)
(15.4286 3.70074e-17 1.9568)
(-1.60114 1.8 1.4417)
(-1.80234 -1.10291e-24 0.1006)
(-1.79764 -0.549899 0.117638)
(-1.78113 -0.948816 0.17752)
(-1.76604 -1.13178 0.241752)
(-1.74653 -1.32082 0.341902)
(-1.72497 -1.49033 0.466667)
(-1.70428 -1.61978 0.598408)
(-1.66032 -1.76008 0.931783)
(-1.68371 -1.7057 0.746035)
(-1.63319 -1.7903 1.16067)
(-1.0996 -1.88182 1.51789)
(-0.623312 -1.95625 1.58446)
(0.253472 -2.08289 1.68874)
(-0.172289 -2.02327 1.64141)
(1.02921 -2.17992 1.75454)
(0.653973 -2.13511 1.72645)
(1.70391 -2.24735 1.78185)
(2.35786 -2.2955 1.79029)
(3.07135 -2.33471 1.79946)
(4.25323 -2.37676 1.81459)
(3.84438 -2.36498 1.80937)
(5.11103 -2.38985 1.82554)
(4.67696 -2.3863 1.82)
(3.45042 -2.35096 1.80432)
(5.55088 -2.38365 1.83116)
(5.99653 -2.36771 1.83685)
(6.44796 -2.34201 1.84263)
(7.62531 2.48104e-17 -0.991034)
(8.02831 2.58637e-17 -0.97605)
(10.0958 3.12605e-17 -0.839709)
(10.6362 3.26682e-17 -0.7791)
(8.79184 2.78583e-17 -0.938184)
(13.1334 3.70074e-17 -0.381614)
(13.7581 3.70074e-17 -0.241526)
(12.7465 3.70074e-17 -0.454859)
(14.4507 3.70074e-17 0.0402609)
(14.6161 3.70074e-17 0.220988)
(14.3485 3.70074e-17 -0.0331342)
(14.7924 3.70074e-17 0.450703)
(14.1977 3.70074e-17 -0.103734)
(6.90518 -2.30657 1.84848)
(7.83698 -2.20644 1.86041)
(7.36819 -2.26138 1.85441)
(8.31156 -2.14175 1.8665)
(9.64257 -1.91972 1.88354)
(9.22143 -1.9967 1.87816)
(10.7707 -1.67102 1.89791)
(10.0412 -1.83979 1.88863)
(8.77777 -2.07071 1.87248)
(11.4102 -1.4904 1.906)
(12.1071 -1.25734 1.9148)
(13.0091 -0.93125 1.9262)
(12.5325 -1.10592 1.92018)
(13.5371 -0.733322 1.93288)
(15.0874 3.70074e-17 0.938857)
(15.2739 3.70074e-17 1.39937)
(14.1163 -0.512138 1.9402)
(14.7468 -0.267697 1.94818)
(-1.79764 0.549899 0.117638)
(-1.78113 0.948816 0.17752)
(-1.76604 1.13178 0.241752)
(-1.74653 1.32082 0.341902)
(-1.72497 1.49033 0.466667)
(-1.70428 1.61978 0.598408)
(-1.68371 1.7057 0.746035)
(-1.66032 1.76008 0.931783)
(-1.63319 1.7903 1.16067)
(-1.0996 1.88182 1.51789)
(-0.623312 1.95625 1.58446)
(-0.172289 2.02327 1.64141)
(0.253472 2.08289 1.68874)
(0.653973 2.13511 1.72645)
(1.02921 2.17992 1.75454)
(1.70391 2.24735 1.78185)
(2.35786 2.2955 1.79029)
(3.07135 2.33471 1.79946)
(3.84438 2.36498 1.80937)
(4.25323 2.37676 1.81459)
(4.67696 2.3863 1.82)
(5.11103 2.38985 1.82554)
(3.45042 2.35096 1.80432)
(5.55088 2.38365 1.83116)
(5.99653 2.36771 1.83685)
(6.44796 2.34201 1.84263)
(6.90518 2.30657 1.84848)
(7.36819 2.26138 1.85441)
(7.83698 2.20644 1.86041)
(8.31156 2.14175 1.8665)
(9.22143 1.9967 1.87816)
(9.64257 1.91972 1.88354)
(10.0412 1.83979 1.88863)
(10.7707 1.67102 1.89791)
(8.77777 2.07071 1.87248)
(11.4102 1.4904 1.906)
(12.1071 1.25734 1.9148)
(12.5325 1.10592 1.92018)
(13.0091 0.93125 1.9262)
(13.5371 0.733322 1.93288)
(14.1163 0.512138 1.9402)
(14.7468 0.267697 1.94818)
(-1.60114 -1.35 1.4417)
(-1.60114 -0.9 1.4417)
(-1.60114 -0.45 1.4417)
(-1.79798 -0.17778 0.116403)
(-1.60114 -4.62593e-16 1.4417)
(-1.60114 0.45 1.4417)
(-1.60114 0.9 1.4417)
(-1.60114 1.35 1.4417)
(-1.80142 -0.0901258 0.103924)
)

// edges

112
(
(4 3)
(5 4)
(6 5)
(7 6)
(8 7)
(9 8)
(10 11)
(11 9)
(12 10)
(0 12)
(13 0)
(14 13)
(15 16)
(16 14)
(17 18)
(19 17)
(20 19)
(18 15)
(21 20)
(22 23)
(24 25)
(23 26)
(27 24)
(26 21)
(25 22)
(28 27)
(29 28)
(30 31)
(32 33)
(31 34)
(35 36)
(37 35)
(38 39)
(40 38)
(39 41)
(42 40)
(36 42)
(43 29)
(44 45)
(45 43)
(46 44)
(47 48)
(49 50)
(48 51)
(52 49)
(51 46)
(50 47)
(53 52)
(54 55)
(56 54)
(57 58)
(41 57)
(55 53)
(59 56)
(60 59)
(1 60)
(58 1)
(3 61)
(61 62)
(62 63)
(63 64)
(64 65)
(65 66)
(67 68)
(66 67)
(68 69)
(69 2)
(2 70)
(70 71)
(72 73)
(71 72)
(74 75)
(75 76)
(76 77)
(73 74)
(77 78)
(79 80)
(81 82)
(83 79)
(82 84)
(78 83)
(80 81)
(84 85)
(85 86)
(86 87)
(88 89)
(87 88)
(89 90)
(91 92)
(93 94)
(95 91)
(94 96)
(90 95)
(92 93)
(96 97)
(98 99)
(99 100)
(97 98)
(100 101)
(101 102)
(102 1)
(0 103)
(103 104)
(104 105)
(106 3)
(105 107)
(107 108)
(109 110)
(108 109)
(110 2)
(111 106)
(3 111)
)

// concaveStart mixedStart nonFeatureStart
3 3 4
// internalStart flatStart openStart multipleStart
110 112 112 112
// normals

219
(
(-0.279005 -0.0321199 -0.959752)
(-0.964026 -1.11577e-07 0.265807)
(-0.222586 -0.153727 -0.962717)
(-0.96403 1.51083e-07 0.265792)
(-0.252718 -0.338978 -0.906216)
(-0.973055 0.000682507 0.230572)
(-0.269197 -0.472429 -0.839252)
(-0.981338 0.000570363 0.192289)
(-0.287828 -0.591148 -0.753458)
(-0.985439 -0.000168558 0.170028)
(-0.280807 -0.706282 -0.649856)
(-0.987844 0.000292711 0.15545)
(-0.200656 -0.946727 -0.251885)
(-0.992158 9.75135e-05 0.124993)
(-0.250944 -0.851398 -0.460597)
(-0.990478 -0.000557082 0.137666)
(-0.168999 -0.979539 -0.109282)
(-0.99305 -5.64546e-05 0.117697)
(-0.160769 -0.986867 -0.0157417)
(-0.993561 0.000206478 0.113299)
(-0.15926 -0.987166 -0.0117886)
(-0.150187 0 0.988658)
(-0.152782 -0.988191 -0.0116623)
(-0.138468 -0.000292579 0.990367)
(-0.135982 -0.990412 -0.0243426)
(-0.110596 -0.000820485 0.993865)
(-0.145229 -0.989298 -0.0140851)
(-0.125349 -0.000525924 0.992113)
(-0.116417 -0.992783 -0.0287851)
(-0.0744856 0.00134311 0.997221)
(-0.0985762 -0.994906 -0.0210724)
(-0.0406155 -0.00163253 0.999174)
(-0.0730528 -0.996945 -0.027648)
(-0.0128882 0.000243064 0.999917)
(-0.126847 -0.991584 -0.0258898)
(-0.0933599 0.00293104 0.995628)
(-0.0545838 -0.998279 -0.0214601)
(-0.0128539 -4.76316e-06 0.999917)
(-0.0284828 -0.999305 -0.0240286)
(-0.0127804 -9.04026e-08 0.999918)
(-0.00781459 -0.999567 -0.0283732)
(-0.0127598 -8.06177e-07 0.999919)
(-0.0352456 -0.999109 -0.0232188)
(-0.0127997 2.34397e-06 0.999918)
(0.0144573 -0.999465 -0.0293305)
(-0.0127693 -2.61995e-06 0.999918)
(-0.0425206 -0.998824 -0.0233095)
(-0.0128202 -2.01631e-06 0.999918)
(-0.0221849 -0.999433 -0.0253421)
(-0.0127633 -1.55313e-06 0.999919)
(0.0361379 -0.998866 -0.0310003)
(-0.0127787 -1.90701e-06 0.999918)
(0.057307 -0.997488 -0.0416264)
(-0.012788 -1.47838e-06 0.999918)
(0.0358686 -0.260957 -0.964684)
(0.0358686 0.260957 -0.964684)
(0.107507 -0.263949 -0.958527)
(0.107507 0.263949 -0.958527)
(0.0476087 -0.275931 -0.959998)
(0.0476087 0.275931 -0.959998)
(0.203963 -0.362299 -0.909472)
(0.203963 0.362299 -0.909472)
(0.176194 -0.320573 -0.930692)
(0.176194 0.320573 -0.930692)
(0.351714 -0.879059 -0.321796)
(0.351714 0.879059 -0.321796)
(0.326675 -0.828442 -0.454936)
(0.326675 0.828442 -0.454936)
(0.36944 -0.88491 -0.283634)
(0.36944 0.88491 -0.283634)
(0.296453 -0.71474 -0.633453)
(0.296453 0.71474 -0.633453)
(0.257223 -0.510317 -0.820617)
(0.257223 0.510317 -0.820617)
(0.0777194 -0.996232 -0.038498)
(-0.0127969 -1.21845e-06 0.999918)
(0.116888 -0.991858 -0.0505517)
(-0.012814 -9.35714e-07 0.999918)
(0.0976244 -0.994152 -0.0461612)
(-0.0128058 -1.00843e-06 0.999918)
(0.13556 -0.989072 -0.0579714)
(-0.0128225 -2.93523e-06 0.999918)
(0.180216 -0.98061 -0.0769861)
(-0.0127804 -1.47451e-06 0.999918)
(0.225496 -0.969589 -0.0951257)
(-0.0127189 -6.5879e-06 0.999919)
(0.165005 -0.983818 -0.069827)
(-0.0128006 -6.77295e-07 0.999918)
(0.271716 -0.957631 -0.0954657)
(-0.0126607 1.37041e-05 0.99992)
(0.15115 -0.986263 -0.0666194)
(-0.0128182 -2.23967e-07 0.999918)
(0.196974 -0.976931 -0.0825104)
(-0.0127579 -2.57704e-06 0.999919)
(0.316925 -0.944362 -0.0879701)
(-0.0126252 -2.47111e-06 0.99992)
(0.343728 -0.934968 -0.0876735)
(-0.0126385 -1.19906e-06 0.99992)
(0.350665 -0.932383 -0.0877238)
(-0.0126423 -4.58581e-07 0.99992)
(0.383854 -0.910225 -0.15539)
(0.383854 0.910225 -0.15539)
(0.3855 -0.892819 -0.232946)
(0.3855 0.892819 -0.232946)
(0.335044 -0.938152 -0.0872692)
(-0.0126347 -5.84805e-07 0.99992)
(0.356318 -0.930174 -0.0883985)
(-0.0126447 -1.06314e-06 0.99992)
(0.360994 -0.928195 -0.0902057)
(-0.0126475 -1.76299e-07 0.99992)
(0.364914 -0.926388 -0.0929698)
(-0.0126487 -1.85747e-06 0.99992)
(0.372175 -0.922397 -0.103294)
(0.372175 0.922397 -0.103294)
(-0.279005 0.0321199 -0.959752)
(-0.964005 -2.4942e-06 0.265885)
(-0.222586 0.153727 -0.962717)
(-0.96403 -1.51083e-07 0.265792)
(-0.252718 0.338978 -0.906216)
(-0.973055 -0.000682507 0.230572)
(-0.269197 0.472429 -0.839252)
(-0.981338 -0.000570363 0.192289)
(-0.287828 0.591148 -0.753458)
(-0.985266 -0.000589755 0.171028)
(-0.280807 0.706282 -0.649856)
(-0.987869 -0.000126031 0.15529)
(-0.200656 0.946727 -0.251885)
(-0.992152 -0.000262189 0.125041)
(-0.250944 0.851398 -0.460597)
(-0.990386 -0.000608544 0.138332)
(-0.168999 0.979539 -0.109282)
(-0.993044 -0.000271969 0.11774)
(-0.160769 0.986867 -0.0157417)
(-0.993561 -0.000206478 0.113299)
(-0.15926 0.987166 -0.0117886)
(-0.150187 0 0.988658)
(-0.152782 0.988191 -0.0116623)
(-0.138308 -0.000749031 0.990389)
(-0.135982 0.990412 -0.0243426)
(-0.110596 0.000820485 0.993865)
(-0.145229 0.989298 -0.0140851)
(-0.124968 -0.00207392 0.992159)
(-0.116417 0.992783 -0.0287851)
(-0.0745237 -0.00102235 0.997219)
(-0.0985762 0.994906 -0.0210724)
(-0.0406154 0.00163163 0.999174)
(-0.0730528 0.996945 -0.027648)
(-0.0129054 -1.01385e-05 0.999917)
(-0.126847 0.991584 -0.0258898)
(-0.0938293 0.000697571 0.995588)
(-0.0545838 0.998279 -0.0214601)
(-0.0128536 -1.6358e-06 0.999917)
(-0.0284828 0.999305 -0.0240286)
(-0.0127805 9.02849e-07 0.999918)
(-0.00781459 0.999567 -0.0283732)
(-0.0127598 8.06177e-07 0.999919)
(-0.0352456 0.999109 -0.0232188)
(-0.0127999 1.82248e-06 0.999918)
(0.0144573 0.999465 -0.0293305)
(-0.0127694 8.87314e-07 0.999918)
(-0.0425206 0.998824 -0.0233095)
(-0.0128202 2.01631e-06 0.999918)
(-0.0221849 0.999433 -0.0253421)
(-0.0127633 1.93231e-07 0.999919)
(0.0361379 0.998866 -0.0310003)
(-0.0127787 1.22732e-06 0.999918)
(0.057307 0.997488 -0.0416264)
(-0.012788 1.57741e-06 0.999918)
(0.0777194 0.996232 -0.038498)
(-0.0127968 2.00448e-06 0.999918)
(0.116888 0.991858 -0.0505517)
(-0.012814 9.35714e-07 0.999918)
(0.0976244 0.994152 -0.0461612)
(-0.0128057 2.48323e-06 0.999918)
(0.13556 0.989072 -0.0579714)
(-0.0128227 9.8167e-07 0.999918)
(0.180216 0.98061 -0.0769861)
(-0.0127807 -5.91503e-07 0.999918)
(0.225496 0.969589 -0.0951257)
(-0.0127189 6.5879e-06 0.999919)
(0.165005 0.983818 -0.069827)
(-0.0128005 1.39145e-06 0.999918)
(0.271716 0.957631 -0.0954657)
(-0.0126607 -1.37041e-05 0.99992)
(0.15115 0.986263 -0.0666194)
(-0.0128179 2.06929e-06 0.999918)
(0.196974 0.976931 -0.0825104)
(-0.0127579 2.57704e-06 0.999919)
(0.316925 0.944362 -0.0879701)
(-0.0126252 2.47111e-06 0.99992)
(0.343728 0.934968 -0.0876735)
(-0.0126385 1.19906e-06 0.99992)
(0.350665 0.932383 -0.0877238)
(-0.0126423 4.58581e-07 0.99992)
(0.335044 0.938152 -0.0872692)
(-0.0126347 5.84805e-07 0.99992)
(0.356318 0.930174 -0.0883985)
(-0.0126445 1.69118e-06 0.99992)
(0.360994 0.928195 -0.0902057)
(-0.0126475 1.76299e-07 0.99992)
(0.364914 0.926388 -0.0929698)
(-0.0126487 1.85747e-06 0.99992)
(-0.99366 0 0.112427)
(-0.99366 0 0.112427)
(-0.14962 0 0.988744)
(-0.99366 0 0.112427)
(-0.14962 0 0.988744)
(0.964029 9.58884e-07 -0.265798)
(-0.99366 0 0.112427)
(-0.14962 0 0.988744)
(-0.99366 0 0.112427)
(-0.14962 0 0.988744)
(-0.99366 0 0.112427)
(-0.14962 0 0.988744)
(-0.99366 0 0.112427)
(-0.14962 0 0.988744)
(-0.99366 0 0.112427)
(-0.964027 0 0.265804)
(-0.964022 0 0.265822)
)

// normal volume types

219
(
0
0
0
0
0
0
0
0
0
0
0
0
0
0
0
0
0
0
0
0
0
0
0
0
0
0
0
0
0
0
0
0
0
0
0
0
0
0
0
0
0
0
0
0
0
0
0
0
0
0
0
0
0
0
0
0
0
0
0
0
0
0
0
0
0
0
0
0
0
0
0
0
0
0
0
0
0
0
0
0
0
0
0
0
0
0
0
0
0
0
0
0
0
0
0
0
0
0
0
0
0
0
0
0
0
0
0
0
0
0
0
0
0
0
0
0
0
0
0
0
0
0
0
0
0
0
0
0
0
0
0
0
0
0
0
0
0
0
0
0
0
0
0
0
0
0
0
0
0
0
0
0
0
0
0
0
0
0
0
0
0
0
0
0
0
0
0
0
0
0
0
0
0
0
0
0
0
0
0
0
0
0
0
0
0
0
0
0
0
0
0
0
0
0
0
0
0
0
0
0
0
0
0
0
0
0
0
0
0
0
0
0
0
0
0
0
0
0
0
)

// normalDirections

112
(
2(1 -1)
2(1 -1)
2(1 -1)
2(1 -1)
2(1 -1)
2(1 -1)
2(1 -1)
2(1 -1)
2(1 -1)
2(1 -1)
2(1 -1)
2(1 -1)
2(1 -1)
2(1 -1)
2(1 -1)
2(1 -1)
2(1 -1)
2(1 -1)
2(1 -1)
2(1 -1)
2(1 -1)
2(1 -1)
2(1 -1)
2(1 -1)
2(1 -1)
2(1 -1)
2(1 -1)
2(1 -1)
2(1 -1)
2(1 -1)
2(1 -1)
2(1 -1)
2(1 -1)
2(1 -1)
2(1 -1)
2(1 -1)
2(1 -1)
2(1 -1)
2(1 -1)
2(1 -1)
2(1 -1)
2(1 -1)
2(1 -1)
2(1 -1)
2(1 -1)
2(1 -1)
2(1 -1)
2(1 -1)
2(1 -1)
2(1 -1)
2(1 -1)
2(1 -1)
2(1 -1)
2(1 -1)
2(1 -1)
2(1 -1)
2(1 -1)
2(1 -1)
2(1 -1)
2(1 -1)
2(1 -1)
2(1 -1)
2(1 -1)
2(1 -1)
2(1 -1)
2(1 -1)
2(1 -1)
2(1 -1)
2(1 -1)
2(1 -1)
2(1 -1)
2(1 -1)
2(1 -1)
2(1 -1)
2(1 -1)
2(1 -1)
2(1 -1)
2(1 -1)
2(1 -1)
2(1 -1)
2(1 -1)
2(1 -1)
2(1 -1)
2(1 -1)
2(1 -1)
2(1 -1)
2(1 -1)
2(1 -1)
2(1 -1)
2(1 -1)
2(1 -1)
2(1 -1)
2(1 -1)
2(1 -1)
2(1 -1)
2(1 -1)
2(1 -1)
2(1 -1)
2(1 -1)
2(1 -1)
2(1 -1)
2(1 -1)
2(1 -1)
2(1 -1)
2(1 -1)
2(1 -1)
2(1 -1)
2(1 -1)
2(1 -1)
2(1 -1)
2(1 -1)
2(1 -1)
)

// edgeNormals

112
(
2(0 1)
2(2 3)
2(4 5)
2(6 7)
2(8 9)
2(10 11)
2(12 13)
2(14 15)
2(16 17)
2(18 19)
2(20 21)
2(22 23)
2(24 25)
2(26 27)
2(28 29)
2(30 31)
2(32 33)
2(34 35)
2(36 37)
2(38 39)
2(40 41)
2(42 43)
2(44 45)
2(46 47)
2(48 49)
2(50 51)
2(52 53)
2(54 55)
2(56 57)
2(58 59)
2(60 61)
2(62 63)
2(64 65)
2(66 67)
2(68 69)
2(70 71)
2(72 73)
2(74 75)
2(76 77)
2(78 79)
2(80 81)
2(82 83)
2(84 85)
2(86 87)
2(88 89)
2(90 91)
2(92 93)
2(94 95)
2(96 97)
2(98 99)
2(100 101)
2(102 103)
2(104 105)
2(106 107)
2(108 109)
2(110 111)
2(112 113)
2(114 115)
2(116 117)
2(118 119)
2(120 121)
2(122 123)
2(124 125)
2(126 127)
2(128 129)
2(130 131)
2(132 133)
2(134 135)
2(136 137)
2(138 139)
2(140 141)
2(142 143)
2(144 145)
2(146 147)
2(148 149)
2(150 151)
2(152 153)
2(154 155)
2(156 157)
2(158 159)
2(160 161)
2(162 163)
2(164 165)
2(166 167)
2(168 169)
2(170 171)
2(172 173)
2(174 175)
2(176 177)
2(178 179)
2(180 181)
2(182 183)
2(184 185)
2(186 187)
2(188 189)
2(190 191)
2(192 193)
2(194 195)
2(196 197)
2(198 199)
2(200 201)
2(202 21)
2(203 204)
2(205 206)
2(1 207)
2(208 209)
2(210 211)
2(212 213)
2(214 215)
2(216 135)
2(217 207)
2(218 207)
)

// featurePointNormals

4
(
4(18 19 20 21)
5(110 111 112 113 200)
4(132 133 134 135)
4(0 1 114 207)
)

// featurePointEdges

4
(
3(10 101 9)
3(56 100 55)
3(67 109 66)
4(0 104 111 57)
)

// regionEdges
0()


// ************************************************************************* //
