/*--------------------------------*- C++ -*----------------------------------*\
| =========                 |                                                 |
| \\      /  F ield         | OpenFOAM: The Open Source CFD Toolbox           |
|  \\    /   O peration     | Version:  2.3.0                                 |
|   \\  /    A nd           | Web:      www.OpenFOAM.org                      |
|    \\/     M anipulation  |                                                 |
\*---------------------------------------------------------------------------*/
FoamFile
{
    version     2.0;
    format      ascii;
    class       dictionary;
    object      blockMeshDict;
}
// * * * * * * * * * * * * * * * * * * * * * * * * * * * * * * * * * * * * * //

#include "initialConditions"

scale 1.0;


vertices
(
   	($XMin 0 $ZMin)
	($XMax 0 $ZMin) 
	($XMax $YMax $ZMin)
	($XMin $YMax $ZMin)

	( $XMin $YMin  $ZMax)    	 
   	( $XMax $YMin  $ZMax) 
	( $XMax  $YMax  $ZMax)
	( $XMin  $YMax  $ZMax)

);

blocks
(
    hex (0 1 2 3 4 5 6 7) ($Nx $Ny $Nz) simpleGrading (1 1 1)
);

edges
(
);

boundary
(
    atmosphere 
    {
        type patch;
        faces
        (
           (4 5 6 7)
        );
    }

    inlet 
    {
        type patch;
        faces
        (
            (1 2 6 5)
        );
    }

    outlet 
    {
        type patch;
        faces
        (
            (0 4 7 3)
        );
    }

    Sym_bottom 
    {
        type symmetryPlane;
        faces
        (
            (0 3 2 1)
        );
    }

    Sym_midPlane
    {
        type symmetryPlane;
        faces
        (
            (0 1 5 4)
        );
    }

    Sym_side
    {
        type symmetryPlane;
        faces
        (
            (2 3 7 6)
        );
    }
);

mergePatchPairs
(
);

// ************************************************************************* //
