/*--------------------------------*- C++ -*----------------------------------*\
| =========                 |                                                 |
| \\      /  F ield         | OpenFOAM: The Open Source CFD Toolbox           |
|  \\    /   O peration     | Version:  2.3.0                                 |
|   \\  /    A nd           | Web:      www.OpenFOAM.org                      |
|    \\/     M anipulation  |                                                 |
\*---------------------------------------------------------------------------*/
FoamFile
{
    version     2.0;
    format      ascii;
    class       dictionary;
    location    "system";
    object      fvSolution;
}
// * * * * * * * * * * * * * * * * * * * * * * * * * * * * * * * * * * * * * //

solvers
{
    "alpha.water.*"
    {
        nAlphaCorr      3;
        nAlphaSubCycles 3;    // Changed from 1 to 3 for better interface stability
        cAlpha          1;
        icAlpha         0;

        alphaOuterCorrectors  yes;

        MULESCorr       yes;
        nLimiterIter    10;
        alphaApplyPrevCorr  yes;

        solver          smoothSolver;
        smoother        symGaussSeidel;
        tolerance       1e-6;
        relTol          0;
        minIter         1;
    }

    "pcorr.*"
    {
        solver          GAMG;

        smoother        DIC;
        agglomerator    faceAreaPair;
        mergeLevels     1;
        nCellsInCoarsestLevel 10;
        cacheAgglomeration true;

        tolerance       0.1;
        relTol          0;
    };

    p_rgh
    {
        solver          GAMG;

        smoother        DIC;
        agglomerator    faceAreaPair;
        mergeLevels     1;
        nCellsInCoarsestLevel 10;
        cacheAgglomeration true;

        tolerance       5e-6;
        relTol          0.01;
    };

    p_rghFinal
    {
        $p_rgh;
        relTol          0;
    }

    "(U|k|omega).*"
    {
        solver          smoothSolver;

        smoother        symGaussSeidel;
        nSweeps         1;

        tolerance       1e-6;
        relTol          0;
        minIter         1;
    };
}

PIMPLE
{
    momentumPredictor no;

    nOuterCorrectors 3;
    nCorrectors      3;
    nNonOrthogonalCorrectors 1;

    residualControl
    {
        p_rgh
        {
            tolerance 1e-4;
            relTol    0;
        }
        
        U
        {
            tolerance 1e-4;
            relTol    0;
        }
        
        alpha.water
        {
            tolerance 1e-4;
            relTol    0;
        }
    }


   correctPhi      yes;     //When using dynamic mesh
    /*
    moveMeshOuterCorrectors yes (Tight Coupling): Very stable for floating bodies, but forces you to run a fixed number of iterations (no residualControl).
    moveMeshOuterCorrectors no (Loose Coupling): Allows residualControl (faster), but the mesh only moves once per time step. This is slightly less stable, but usually fine if your maxCo is small (e.g., < 0.5).
    */
   moveMeshOuterCorrectors no;

/*
    correctPhi      no;     //When not using dynamic mesh
    moveMeshOuterCorrectors no;   //When not using dynamic mesh
*/    
    turbOnFinalIterOnly yes;
}

relaxationFactors
{
    fields
    {
    }
    equations
    {
        ".*" 0.7;
    }
}

cache
{
    grad(U);
}


// ************************************************************************* //
