/*--------------------------------*- C++ -*----------------------------------*\
| =========                 |                                                 |
| \\	  /  F ield         | OpenFOAM: The Open Source CFD Toolbox           |
|  \\    /   O peration     | Version:  v1912                                 |
|   \\  /    A nd           | Website:  www.openfoam.com                      |
|    \\/     M anipulation  |                                                 |
\*---------------------------------------------------------------------------*/
FoamFile
{
    version     2.0;
    format	ascii;
    class	dictionary;
    object	surfaceFeatureExtractDict;
}
// * * * * * * * * * * * * * * * * * * * * * * * * * * * * * * * * * * * * * //

sink_hull.stl
{
    // Extract raw features (none | extractFromFile | extractFromSurface)
    extractionMethod    extractFromSurface;

    // Mark edges whose adjacent surface normals are at an angle less
    // than includedAngle as features
    // - 0  : selects no edges
    // - 180: selects all edges
    includedAngle       180;


    // Keep nonManifold edges (edges with >2 connected faces where
    // the faces form more than two different normal planes)
    nonManifoldEdges yes;
  
    // Keep open edges (edges with 1 connected face)
    openEdges       yes;

    // Do not mark region edges
    geometricTestOnly   yes;

    // Generate additional intersection features (none | self | region)
    intersectionMethod  none;

    // Tolerance for surface intersections
    // tolerance           1e-3;

// Output options:

    // Write features to obj format for postprocessing
    writeObj            yes;

}



// ************************************************************************* //


